Circuit: * C:\Users\kds\Documents\capstone\IR touch screen\tx_schematic.asc

WARNING: Less than two connections to node NC_01.  This node is used by R:U2:OUT4:OUT.
WARNING: Less than two connections to node NC_02.  This node is used by R:U2:OUT5:OUT.
WARNING: Less than two connections to node NC_03.  This node is used by R:U2:OUT6:OUT.
WARNING: Less than two connections to node NC_04.  This node is used by R:U2:OUT7:OUT.
WARNING: Less than two connections to node NC_05.  This node is used by R:U2:OUT8:OUT.
Direct Newton iteration failed to find .op point.  (Use ".option noopiter" to skip.)
Starting Gmin stepping
Gmin = 10
Gmin = 1.07374
Gmin = 0.115292
Gmin = 0.0123794
Gmin = 0.00132923
Gmin = 0.000142725
Gmin = 1.5325e-005
Gmin = 1.6455e-006
Gmin = 1.76685e-007
Gmin = 1.89714e-008
Gmin = 2.03704e-009
Gmin = 2.18725e-010
Gmin = 2.34854e-011
Gmin = 2.52173e-012
Gmin = 2.70769e-013
Gmin = 0
Gmin stepping succeeded in finding the operating point.

Ignoring empty pin current: Ix(u1:vcc)
Ignoring empty pin current: Ix(u2:vcc)
Ignoring empty pin current: Ix(u1:vcc)
Ignoring empty pin current: Ix(u2:vcc)

Date: Wed Sep 14 09:43:22 2016
Total elapsed time: 1.590 seconds.

tnom = 27
temp = 27
method = modified trap
totiter = 56699
traniter = 56347
tranpoints = 18792
accept = 15272
rejected = 3520
matrix size = 231
fillins = 56
solver = Normal
Thread vector: 25.7/8.3[5] 8.7/3.3[5] 3.5/1.5[5] 0.6/1.0[1]  2592/500
Matrix Compiler1: 12.83 KB object code size  3.7/2.1/[1.2]
Matrix Compiler2: 16.28 KB object code size  1.7/2.3/[0.9]


